%%%%%%%%%%%%%%%%%%%%%%%%%%%%%%%%%%%%%%%%%%%%%%%%%%%%%%%%%%%%%%%%%%%%%%%%%%%%%%%%
%                                                                              %
% SU2 configuration file                                                       %
% Case description: Time spectral calc. of flow around a NACA 64A010 airfoil   %
% Author: Thomas D. Economon                                                   %
% Institution: Stanford University                                             %
% Date: 2016.20.09                                                             %
% File Version 7.5.0 "Blackbird"                                               %
%                                                                              %
%%%%%%%%%%%%%%%%%%%%%%%%%%%%%%%%%%%%%%%%%%%%%%%%%%%%%%%%%%%%%%%%%%%%%%%%%%%%%%%%

% ------------- DIRECT, ADJOINT, AND LINEARIZED PROBLEM DEFINITION ------------%

SOLVER= EULER
KIND_TURB_MODEL= NONE
MATH_PROBLEM= DIRECT
RESTART_SOL= NO

% ------------------------- UNSTEADY SIMULATION -------------------------------%

TIME_MARCHING= HARMONIC_BALANCE
TIME_INSTANCES= 5
HB_PERIOD= 0.32699999999893814
OMEGA_HB = (0,62.831853072,70.84,-70.84,-62.831853072)

GRID_MOVEMENT= RIGID_MOTION
MOTION_ORIGIN= ( 0.25 0.0 0.0 )

PITCHING_OMEGA= ( 0.0 62.831853072 0.0 )
PITCHING_AMPL= ( 0.0 1 0.0 )

ITER= 70000
 
% ----------- COMPRESSIBLE AND INCOMPRESSIBLE FREE-STREAM DEFINITION ----------%
% System of measurements (SI, US)
% International system of units (SI): ( meters, kilograms, Kelvins,
%                                       Newtons = kg m/s^2, Pascals = N/m^2,
%                                       Density = kg/m^3, Speed = m/s,
%                                       Equiv. Area = m^2 )
% United States customary units (US): ( inches, slug, Rankines, lbf = slug ft/s^2,
%                                       psf = lbf/ft^2, Density = slug/ft^3,
%                                       Speed = ft/s, Equiv. Area = ft^2 )
SYSTEM_MEASUREMENTS= US
MACH_NUMBER= 0.7
AOA= 03.0
FREESTREAM_PRESSURE= 100
FREESTREAM_TEMPERATURE= 540

INIT_OPTION= TD_CONDITIONS

% ---------------------- REFERENCE VALUE DEFINITION ---------------------------%

REF_LENGTH= 1.0
REF_AREA= 1.0

% ----------------------- BOUNDARY CONDITION DEFINITION -----------------------%

MARKER_EULER= ( Patch1, Patch2, Patch3, Patch10, Patch11, Patch12, Patch13, Patch14 )
MARKER_FAR= ( Patch4, Patch5, Patch7, Patch8, Patch9 )
MARKER_SYM= ( Patch6 )

MARKER_PLOTTING= ( Patch1, Patch2, Patch3, Patch10, Patch11, Patch12, Patch13, Patch14 )
MARKER_MONITORING= ( Patch1, Patch2, Patch3, Patch10, Patch11, Patch12, Patch13, Patch14 )

MARKER_INTERNAL= (Elem_TETRA_4)

% ------------- COMMON PARAMETERS TO DEFINE THE NUMERICAL METHOD --------------%

NUM_METHOD_GRAD= WEIGHTED_LEAST_SQUARES
CFL_NUMBER= 1
CFL_ADAPT= NO
%CFL_ADAPT_PARAM= ( 0.1 2.0 100.0 1E10 ) 
CFL_ADAPT_PARAM= ( 0.5, 1.5, 1.0, 100.0 )
RK_ALPHA_COEFF= ( 0.66667, 0.66667, 1.000000 )

% ------------------------ LINEAR SOLVER DEFINITION ---------------------------%

LINEAR_SOLVER= FGMRES
LINEAR_SOLVER_PREC= LU_SGS
LINEAR_SOLVER_ERROR= 1E-6
LINEAR_SOLVER_ITER= 10

% -------------------- FLOW NUMERICAL METHOD DEFINITION -----------------------%

CONV_NUM_METHOD_FLOW= JST
MUSCL_FLOW= YES
SLOPE_LIMITER_FLOW= NONE
VENKAT_LIMITER_COEFF= 0.03
JST_SENSOR_COEFF= ( 0.5, 0.02 )
TIME_DISCRE_FLOW= EULER_IMPLICIT

% ------------------------ GRID DEFORMATION PARAMETERS ------------------------%

DEFORM_LINEAR_SOLVER_ITER= 500
DEFORM_NONLINEAR_ITER= 1
DEFORM_CONSOLE_OUTPUT= YES
DEFORM_LINEAR_SOLVER_ERROR= 1E-14
DEFORM_STIFFNESS_TYPE= INVERSE_VOLUME

% --------------------------- CONVERGENCE PARAMETERS --------------------------%
%
CONV_RESIDUAL_MINVAL= -10
CONV_STARTITER= 10
CONV_CAUCHY_ELEMS= 100
CONV_CAUCHY_EPS= 1E-6

% ------------------------- INPUT/OUTPUT INFORMATION --------------------------%

MESH_FILENAME= bscw_coarse.su2
MESH_FORMAT= SU2
MESH_OUT_FILENAME= mesh_out.su2
SOLUTION_FILENAME= restart_flow.dat
SOLUTION_ADJ_FILENAME= solution_adj.dat
TABULAR_FORMAT= CSV
CONV_FILENAME= history
RESTART_FILENAME= restart_flow.dat
RESTART_ADJ_FILENAME= restart_adj.dat
VOLUME_FILENAME= flow
VOLUME_ADJ_FILENAME= adjoint
GRAD_OBJFUNC_FILENAME= of_grad.dat
SURFACE_FILENAME= surface_flow
SURFACE_ADJ_FILENAME= surface_adjoint
OUTPUT_WRT_FREQ= 100

HISTORY_OUTPUT=TIME_DOMAIN, AERO_COEFF
VOLUME_OUTPUT= SOLUTION, PRIMITIVE

